# generated using pymatgen
data_Rb4SrMn3F12
_symmetry_space_group_name_H-M   'P 1'
_cell_length_a   7.66961659
_cell_length_b   7.66961660
_cell_length_c   7.66961660
_cell_angle_alpha   109.47122062
_cell_angle_beta   109.47122066
_cell_angle_gamma   109.47122067
_symmetry_Int_Tables_number   1
_chemical_formula_structural   Rb4SrMn3F12
_chemical_formula_sum   'Rb4 Sr1 Mn3 F12'
_cell_volume   347.29543220
_cell_formula_units_Z   1
loop_
 _symmetry_equiv_pos_site_id
 _symmetry_equiv_pos_as_xyz
  1  'x, y, z'
loop_
 _atom_site_type_symbol
 _atom_site_label
 _atom_site_symmetry_multiplicity
 _atom_site_fract_x
 _atom_site_fract_y
 _atom_site_fract_z
 _atom_site_occupancy
  Rb  Rb0  1  0.50000000  0.50000000  0.50000000  1
  Rb  Rb1  1  -0.00000000  0.00000000  0.50000000  1
  Rb  Rb2  1  0.50000000  0.00000000  0.00000000  1
  Rb  Rb3  1  0.00000000  0.50000000  0.00000000  1
  Sr  Sr4  1  0.00000000  0.00000000  0.00000000  1
  Mn  Mn5  1  0.50000000  0.00000000  0.50000000  1
  Mn  Mn6  1  0.50000000  0.50000000  0.00000000  1
  Mn  Mn7  1  -0.00000000  0.50000000  0.50000000  1
  F  F8  1  0.25000000  0.50000000  0.75000000  1
  F  F9  1  0.73443246  1.00000000  0.73443246  1
  F  F10  1  0.26556754  -0.00000000  0.26556754  1
  F  F11  1  0.75000000  0.50000000  0.25000000  1
  F  F12  1  0.73443246  0.73443246  1.00000000  1
  F  F13  1  0.26556754  0.26556754  0.00000000  1
  F  F14  1  0.75000000  0.25000000  0.50000000  1
  F  F15  1  0.25000000  0.75000000  0.50000000  1
  F  F16  1  0.50000000  0.25000000  0.75000000  1
  F  F17  1  1.00000000  0.73443246  0.73443246  1
  F  F18  1  0.50000000  0.75000000  0.25000000  1
  F  F19  1  -0.00000000  0.26556754  0.26556754  1
