# generated using pymatgen
data_U8Bi2O19
_symmetry_space_group_name_H-M   'P 1'
_cell_length_a   3.83467701
_cell_length_b   3.83503800
_cell_length_c   27.47633195
_cell_angle_alpha   89.93670764
_cell_angle_beta   89.97713734
_cell_angle_gamma   89.99651863
_symmetry_Int_Tables_number   1
_chemical_formula_structural   U8Bi2O19
_chemical_formula_sum   'U8 Bi2 O19'
_cell_volume   404.07028649
_cell_formula_units_Z   1
loop_
 _symmetry_equiv_pos_site_id
 _symmetry_equiv_pos_as_xyz
  1  'x, y, z'
loop_
 _atom_site_type_symbol
 _atom_site_label
 _atom_site_symmetry_multiplicity
 _atom_site_fract_x
 _atom_site_fract_y
 _atom_site_fract_z
 _atom_site_occupancy
  U  U0  1  0.99835800  0.00274100  0.20062100  1.0
  U  U1  1  0.49612500  0.49874000  0.30080700  1.0
  U  U2  1  0.99686700  0.00045500  0.40036600  1.0
  U  U3  1  0.49937600  0.50058500  0.50015300  1.0
  U  U4  1  0.00189200  0.99984800  0.60016700  1.0
  U  U5  1  0.50113200  0.50095500  0.69999300  1.0
  U  U6  1  0.99966700  0.00041000  0.79958000  1.0
  U  U7  1  0.50128400  0.49791600  0.89973700  1.0
  Bi  Bi8  1  0.00359800  0.99593600  0.00166300  1.0
  Bi  Bi9  1  0.50171400  0.50898100  0.09894500  1.0
  O  O10  1  0.99572400  0.49962300  0.35110300  1.0
  O  O11  1  0.49722900  0.00157300  0.45012300  1.0
  O  O12  1  0.00101000  0.49926300  0.55020300  1.0
  O  O13  1  0.50266200  0.00069500  0.65006600  1.0
  O  O14  1  0.00012800  0.50145900  0.74933600  1.0
  O  O15  1  0.49984900  0.99877100  0.84752400  1.0
  O  O16  1  0.99989300  0.49874200  0.84741600  1.0
  O  O17  1  0.00326100  0.49707300  0.94316800  1.0
  O  O18  1  0.50355900  0.99658600  0.94224700  1.0
  O  O19  1  0.00126500  0.50706400  0.15750000  1.0
  O  O20  1  0.00234600  0.49601400  0.05058900  1.0
  O  O21  1  0.50018800  0.00736600  0.15740400  1.0
  O  O22  1  0.49632100  0.99864500  0.25247400  1.0
  O  O23  1  0.99602900  0.49870100  0.25309200  1.0
  O  O24  1  0.49571300  0.99933000  0.35071900  1.0
  O  O25  1  0.99801400  0.50152800  0.45030600  1.0
  O  O26  1  0.50142200  0.99941300  0.55013400  1.0
  O  O27  1  0.00196400  0.49993000  0.65002200  1.0
  O  O28  1  0.49972400  0.00152000  0.74941400  1.0
