data_functionalizedCrystal
_audit_creation_method	'MofGen! by Chris Wilmer'
_symmetry_space_group_name_H-M	'P1'
_symmetry_Int_Tables_number	1
_symmetry_cell_setting	triclinic
loop_
_symmetry_equiv_pos_as_xyz
  x,y,z
_cell_length_a	14.519709
_cell_length_b	13.596369
_cell_length_c	14.519709
_cell_angle_alpha	89.993066
_cell_angle_beta	83.680145
_cell_angle_gamma	90.000291
loop_
_atom_site_label
_atom_site_type_symbol
_atom_site_fract_x
_atom_site_fract_y
_atom_site_fract_z
O1	O	-1.223868	0.081665	-0.120893
O2	O	-0.955392	0.081696	-0.135129
O3	O	-1.096748	0.081671	0.006227
O4	O	-1.082512	0.081690	-0.262249
O5	O	-1.096734	-0.081912	0.006235
O6	O	-0.955377	-0.081887	-0.135122
O7	O	-1.223854	-0.081917	-0.120885
Zn8	Zn	-1.089614	-0.107875	-0.128002
Zn9	Zn	-1.089632	0.107653	-0.128012
O10	O	-1.082498	-0.081893	-0.262242
C11	C	-0.921025	-0.000092	-0.134462
C12	C	-0.818643	-0.000081	-0.132474
C13	C	-1.258221	-0.000128	-0.121553
C14	C	-1.360602	-0.000132	-0.123541
N15	N	-1.089608	-0.254966	-0.127995
C16	C	-1.096078	-0.000121	0.040591
C17	C	-1.094090	-0.000121	0.142972
C18	C	-0.443748	-0.000126	-0.125154
C19	C	-0.548056	-0.000113	-0.127187
C20	C	-0.631192	-0.000102	-0.128814
C21	C	-0.735507	-0.000091	-0.130847
C22	C	-1.089631	-0.656257	-0.128013
C23	C	-1.089622	-0.544606	-0.128011
C24	C	-1.089620	-0.455615	-0.128005
C25	C	-1.089610	-0.343957	-0.128001
N26	N	-1.089645	0.254745	-0.128012
C27	C	-1.083168	-0.000099	-0.296605
C28	C	-1.085156	-0.000092	-0.398987
C29	C	-1.086770	-0.000095	0.517868
C30	C	-1.088803	-0.000102	0.413560
C31	C	-1.090430	-0.000109	0.330423
C32	C	-1.092463	-0.000114	0.226109
