# generated using pymatgen
data_H5CNO3
_symmetry_space_group_name_H-M   'P 1'
_cell_length_a   7.36241536
_cell_length_b   8.76274884
_cell_length_c   10.76272280
_cell_angle_alpha   90.00000000
_cell_angle_beta   90.00000000
_cell_angle_gamma   90.00000000
_symmetry_Int_Tables_number   1
_chemical_formula_structural   H5CNO3
_chemical_formula_sum   'H40 C8 N8 O24'
_cell_volume   694.35702545
_cell_formula_units_Z   8
loop_
 _symmetry_equiv_pos_site_id
 _symmetry_equiv_pos_as_xyz
  1  'x, y, z'
loop_
 _atom_site_type_symbol
 _atom_site_label
 _atom_site_symmetry_multiplicity
 _atom_site_fract_x
 _atom_site_fract_y
 _atom_site_fract_z
 _atom_site_occupancy
  C  C0  1  0.01190821  0.15820333  0.75125380  1
  C  C1  1  0.48809179  0.15820333  0.74874620  1
  C  C2  1  0.98809179  0.34179667  0.25125380  1
  C  C3  1  0.51190821  0.34179667  0.24874620  1
  C  C4  1  0.98809179  0.84179667  0.24874620  1
  C  C5  1  0.51190821  0.84179667  0.25125380  1
  C  C6  1  0.01190821  0.65820333  0.74874620  1
  C  C7  1  0.48809179  0.65820333  0.75125380  1
  H  H8  1  0.30724118  0.32783964  0.93483521  1
  H  H9  1  0.19275882  0.32783964  0.56516479  1
  H  H10  1  0.69275982  0.17216036  0.43483521  1
  H  H11  1  0.80724018  0.17216036  0.06516479  1
  H  H12  1  0.69275982  0.67216036  0.06516479  1
  H  H13  1  0.80724018  0.67216036  0.43483521  1
  H  H14  1  0.30724118  0.82783964  0.56516479  1
  H  H15  1  0.19275882  0.82783964  0.93483521  1
  H  H16  1  0.62973886  0.13578525  0.96729499  1
  H  H17  1  0.87026114  0.13578525  0.53270501  1
  H  H18  1  0.37026114  0.36421475  0.46729499  1
  H  H19  1  0.12973886  0.36421475  0.03270501  1
  H  H20  1  0.37026114  0.86421475  0.03270501  1
  H  H21  1  0.12973886  0.86421475  0.46729499  1
  H  H22  1  0.62973886  0.63578525  0.53270501  1
  H  H23  1  0.87026114  0.63578525  0.96729499  1
  H  H24  1  0.20422580  0.50213403  0.93732172  1
  H  H25  1  0.29577420  0.50213403  0.56267828  1
  H  H26  1  0.79577420  0.99786597  0.43732172  1
  H  H27  1  0.70422580  0.99786597  0.06267828  1
  H  H28  1  0.79577420  0.49786597  0.06267828  1
  H  H29  1  0.70422580  0.49786597  0.43732172  1
  H  H30  1  0.20422580  0.00213403  0.56267828  1
  H  H31  1  0.29577420  0.00213403  0.93732172  1
  H  H32  1  0.83656161  0.05876940  0.93890155  1
  H  H33  1  0.66343839  0.05876940  0.56109845  1
  H  H34  1  0.16343839  0.44123060  0.43890155  1
  H  H35  1  0.33656161  0.44123060  0.06109845  1
  H  H36  1  0.16343839  0.94123060  0.06109845  1
  H  H37  1  0.33656161  0.94123060  0.43890155  1
  H  H38  1  0.83656161  0.55876940  0.56109845  1
  H  H39  1  0.66343839  0.55876940  0.93890155  1
  H  H40  1  0.98300060  0.38275315  0.76052981  1
  H  H41  1  0.51699940  0.38275315  0.73947019  1
  H  H42  1  0.01699940  0.11724685  0.26052981  1
  H  H43  1  0.48300060  0.11724685  0.23947019  1
  H  H44  1  0.01699940  0.61724685  0.23947019  1
  H  H45  1  0.48300060  0.61724685  0.26052981  1
  H  H46  1  0.98300060  0.88275315  0.73947019  1
  H  H47  1  0.51699940  0.88275315  0.76052981  1
  N  N48  1  0.24474748  0.40949095  0.99096100  1
  N  N49  1  0.25525252  0.40949095  0.50903900  1
  N  N50  1  0.75525252  0.09050905  0.49096100  1
  N  N51  1  0.74474748  0.09050905  0.00903900  1
  N  N52  1  0.75525252  0.59050905  0.00903900  1
  N  N53  1  0.74474748  0.59050905  0.49096100  1
  N  N54  1  0.24474748  0.90949095  0.50903900  1
  N  N55  1  0.25525252  0.90949095  0.99096100  1
  O  O56  1  0.98435909  0.03348577  0.81044229  1
  O  O57  1  0.51564091  0.03348577  0.68955771  1
  O  O58  1  0.01564091  0.46651423  0.31044229  1
  O  O59  1  0.48435909  0.46651423  0.18955771  1
  O  O60  1  0.01564091  0.96651423  0.18955771  1
  O  O61  1  0.48435909  0.96651423  0.31044229  1
  O  O62  1  0.98435909  0.53348577  0.68955771  1
  O  O63  1  0.51564091  0.53348577  0.81044229  1
  O  O64  1  0.96956720  0.28545513  0.81420656  1
  O  O65  1  0.53043280  0.28545513  0.68579344  1
  O  O66  1  0.03043280  0.21454487  0.31420656  1
  O  O67  1  0.46956720  0.21454487  0.18579344  1
  O  O68  1  0.03043280  0.71454487  0.18579344  1
  O  O69  1  0.46956720  0.71454487  0.31420656  1
  O  O70  1  0.96956720  0.78545513  0.68579344  1
  O  O71  1  0.53043280  0.78545513  0.81420656  1
  O  O72  1  0.07282142  0.16685962  0.64014251  1
  O  O73  1  0.42717858  0.16685962  0.85985749  1
  O  O74  1  0.92717858  0.33314038  0.14014251  1
  O  O75  1  0.57282142  0.33314038  0.35985749  1
  O  O76  1  0.92717858  0.83314038  0.35985749  1
  O  O77  1  0.57282142  0.83314038  0.14014251  1
  O  O78  1  0.07282142  0.66685962  0.85985749  1
  O  O79  1  0.42717858  0.66685962  0.64014251  1
