# generated using pymatgen
data_H5CNO3
_symmetry_space_group_name_H-M   'P 1'
_cell_length_a   7.36233200
_cell_length_b   8.76645200
_cell_length_c   10.73400900
_cell_angle_alpha   90.00000000
_cell_angle_beta   90.00000000
_cell_angle_gamma   90.00000000
_symmetry_Int_Tables_number   1
_chemical_formula_structural   H5CNO3
_chemical_formula_sum   'H40 C8 N8 O24'
_cell_volume   692.78936482
_cell_formula_units_Z   8
loop_
 _symmetry_equiv_pos_site_id
 _symmetry_equiv_pos_as_xyz
  1  'x, y, z'
loop_
 _atom_site_type_symbol
 _atom_site_label
 _atom_site_symmetry_multiplicity
 _atom_site_fract_x
 _atom_site_fract_y
 _atom_site_fract_z
 _atom_site_occupancy
  C  C0  1  0.98964500  0.15496300  0.24857800  1
  C  C1  1  0.51035500  0.15496300  0.25142200  1
  C  C2  1  0.01035500  0.34503700  0.74857800  1
  C  C3  1  0.48964500  0.34503700  0.75142200  1
  C  C4  1  0.01035500  0.84503700  0.75142200  1
  C  C5  1  0.48964500  0.84503700  0.74857800  1
  C  C6  1  0.98964500  0.65496300  0.25142200  1
  C  C7  1  0.51035500  0.65496300  0.24857800  1
  H  H8  1  0.69054700  0.33636500  0.06610300  1
  H  H9  1  0.80945300  0.33636500  0.43389700  1
  H  H10  1  0.30945300  0.16363500  0.56610300  1
  H  H11  1  0.19054700  0.16363500  0.93389700  1
  H  H12  1  0.30945300  0.66363500  0.93389700  1
  H  H13  1  0.19054700  0.66363500  0.56610300  1
  H  H14  1  0.69054700  0.83636500  0.43389700  1
  H  H15  1  0.80945300  0.83636500  0.06610300  1
  H  H16  1  0.36714200  0.13241200  0.03346100  1
  H  H17  1  0.13285800  0.13241200  0.46653900  1
  H  H18  1  0.63285800  0.36758800  0.53346100  1
  H  H19  1  0.86714200  0.36758800  0.96653900  1
  H  H20  1  0.63285800  0.86758800  0.96653900  1
  H  H21  1  0.86714200  0.86758800  0.53346100  1
  H  H22  1  0.36714200  0.63241200  0.46653900  1
  H  H23  1  0.13285800  0.63241200  0.03346100  1
  H  H24  1  0.79860700  0.50848900  0.06155300  1
  H  H25  1  0.70139300  0.50848900  0.43844700  1
  H  H26  1  0.20139300  0.99151100  0.56155300  1
  H  H27  1  0.29860700  0.99151100  0.93844700  1
  H  H28  1  0.20139300  0.49151100  0.93844700  1
  H  H29  1  0.29860700  0.49151100  0.56155300  1
  H  H30  1  0.79860700  0.00848900  0.43844700  1
  H  H31  1  0.70139300  0.00848900  0.06155300  1
  H  H32  1  0.16251200  0.05152600  0.06131500  1
  H  H33  1  0.33748800  0.05152600  0.43868500  1
  H  H34  1  0.83748800  0.44847400  0.56131500  1
  H  H35  1  0.66251200  0.44847400  0.93868500  1
  H  H36  1  0.83748800  0.94847400  0.93868500  1
  H  H37  1  0.66251200  0.94847400  0.56131500  1
  H  H38  1  0.16251200  0.55152600  0.43868500  1
  H  H39  1  0.33748800  0.55152600  0.06131500  1
  H  H40  1  0.01845000  0.37793800  0.23456200  1
  H  H41  1  0.48155000  0.37793800  0.26543800  1
  H  H42  1  0.98155000  0.12206200  0.73456200  1
  H  H43  1  0.51845000  0.12206200  0.76543800  1
  H  H44  1  0.98155000  0.62206200  0.76543800  1
  H  H45  1  0.51845000  0.62206200  0.73456200  1
  H  H46  1  0.01845000  0.87793800  0.26543800  1
  H  H47  1  0.48155000  0.87793800  0.23456200  1
  N  N48  1  0.75423900  0.41599300  0.00884000  1
  N  N49  1  0.74576100  0.41599300  0.49116000  1
  N  N50  1  0.24576100  0.08400700  0.50884000  1
  N  N51  1  0.25423900  0.08400700  0.99116000  1
  N  N52  1  0.24576100  0.58400700  0.99116000  1
  N  N53  1  0.25423900  0.58400700  0.50884000  1
  N  N54  1  0.75423900  0.91599300  0.49116000  1
  N  N55  1  0.74576100  0.91599300  0.00884000  1
  O  O56  1  0.01709300  0.02818800  0.19235100  1
  O  O57  1  0.48290700  0.02818800  0.30764900  1
  O  O58  1  0.98290700  0.47181200  0.69235100  1
  O  O59  1  0.51709300  0.47181200  0.80764900  1
  O  O60  1  0.98290700  0.97181200  0.80764900  1
  O  O61  1  0.51709300  0.97181200  0.69235100  1
  O  O62  1  0.01709300  0.52818800  0.30764900  1
  O  O63  1  0.48290700  0.52818800  0.19235100  1
  O  O64  1  0.03101700  0.27992300  0.18197800  1
  O  O65  1  0.46898300  0.27992300  0.31802200  1
  O  O66  1  0.96898300  0.22007700  0.68197800  1
  O  O67  1  0.53101700  0.22007700  0.81802200  1
  O  O68  1  0.96898300  0.72007700  0.81802200  1
  O  O69  1  0.53101700  0.72007700  0.68197800  1
  O  O70  1  0.03101700  0.77992300  0.31802200  1
  O  O71  1  0.46898300  0.77992300  0.18197800  1
  O  O72  1  0.92976400  0.16822900  0.35988100  1
  O  O73  1  0.57023600  0.16822900  0.14011900  1
  O  O74  1  0.07023600  0.33177100  0.85988100  1
  O  O75  1  0.42976400  0.33177100  0.64011900  1
  O  O76  1  0.07023600  0.83177100  0.64011900  1
  O  O77  1  0.42976400  0.83177100  0.85988100  1
  O  O78  1  0.92976400  0.66822900  0.14011900  1
  O  O79  1  0.57023600  0.66822900  0.35988100  1
