# generated using pymatgen
data_Lu2O3
_symmetry_space_group_name_H-M   'P 1'
_cell_length_a   8.85999049
_cell_length_b   8.85999049
_cell_length_c   8.85999049
_cell_angle_alpha   109.47122065
_cell_angle_beta   109.47122062
_cell_angle_gamma   109.47122062
_symmetry_Int_Tables_number   1
_chemical_formula_structural   Lu2O3
_chemical_formula_sum   'Lu16 O24'
_cell_volume   535.39939512
_cell_formula_units_Z   8
loop_
 _symmetry_equiv_pos_site_id
 _symmetry_equiv_pos_as_xyz
  1  'x, y, z'
loop_
 _atom_site_type_symbol
 _atom_site_label
 _atom_site_symmetry_multiplicity
 _atom_site_fract_x
 _atom_site_fract_y
 _atom_site_fract_z
 _atom_site_occupancy
  Lu  Lu0  1  0.28376714  0.53376714  0.75000000  1
  Lu  Lu1  1  0.25000000  0.28376714  0.03376714  1
  Lu  Lu2  1  0.96623286  0.75000000  0.71623286  1
  Lu  Lu3  1  0.75000000  0.21623286  0.46623286  1
  Lu  Lu4  1  0.53376714  0.25000000  0.78376714  1
  Lu  Lu5  1  0.21623286  0.96623286  0.25000000  1
  Lu  Lu6  1  0.71623286  0.46623286  0.25000000  1
  Lu  Lu7  1  0.75000000  0.71623286  0.96623286  1
  Lu  Lu8  1  0.03376714  0.25000000  0.28376714  1
  Lu  Lu9  1  0.25000000  0.78376714  0.53376714  1
  Lu  Lu10  1  0.46623286  0.75000000  0.21623286  1
  Lu  Lu11  1  0.78376714  0.03376714  0.75000000  1
  Lu  Lu12  1  0.50000000  0.50000000  0.50000000  1
  Lu  Lu13  1  0.00000000  0.50000000  0.00000000  1
  Lu  Lu14  1  -0.00000000  -0.00000000  0.50000000  1
  Lu  Lu15  1  0.50000000  0.00000000  0.00000000  1
  O  O16  1  0.51117597  0.54371244  0.27235829  1
  O  O17  1  0.72864585  0.95628756  0.46746354  1
  O  O18  1  0.98882403  0.26118231  0.03253646  1
  O  O19  1  0.54371244  0.77235829  0.01117597  1
  O  O20  1  0.53253646  0.98882403  0.76118231  1
  O  O21  1  0.96746354  0.72864585  0.45628756  1
  O  O22  1  0.26118231  0.53253646  0.48882403  1
  O  O23  1  0.72764171  0.77135415  0.73881769  1
  O  O24  1  0.23881769  0.72764171  0.27135415  1
  O  O25  1  0.77235829  0.51117597  0.04371244  1
  O  O26  1  0.95628756  0.96746354  0.22864585  1
  O  O27  1  0.77135415  0.23881769  0.22764171  1
  O  O28  1  0.48882403  0.45628756  0.72764171  1
  O  O29  1  0.27135415  0.04371244  0.53253646  1
  O  O30  1  0.01117597  0.73881769  0.96746354  1
  O  O31  1  0.45628756  0.22764171  0.98882403  1
  O  O32  1  0.22864585  0.76118231  0.77235829  1
  O  O33  1  0.04371244  0.03253646  0.77135415  1
  O  O34  1  0.22764171  0.48882403  0.95628756  1
  O  O35  1  0.76118231  0.27235829  0.72864585  1
  O  O36  1  0.27235829  0.22864585  0.26118231  1
  O  O37  1  0.73881769  0.46746354  0.51117597  1
  O  O38  1  0.03253646  0.27135415  0.54371244  1
  O  O39  1  0.46746354  0.01117597  0.23881769  1
