# generated using pymatgen
data_As2O3
_symmetry_space_group_name_H-M   'P 1'
_cell_length_a   21.97648268
_cell_length_b   5.67710411
_cell_length_c   9.01755664
_cell_angle_alpha   90.00000000
_cell_angle_beta   162.43600493
_cell_angle_gamma   90.00000000
_symmetry_Int_Tables_number   1
_chemical_formula_structural   As2O3
_chemical_formula_sum   'As8 O12'
_cell_volume   339.50892630
_cell_formula_units_Z   4
loop_
 _symmetry_equiv_pos_site_id
 _symmetry_equiv_pos_as_xyz
  1  'x, y, z'
loop_
 _atom_site_type_symbol
 _atom_site_label
 _atom_site_symmetry_multiplicity
 _atom_site_fract_x
 _atom_site_fract_y
 _atom_site_fract_z
 _atom_site_occupancy
  As  As0  1  0.11172265  0.29410562  0.76428199  1
  As  As1  1  0.88827735  0.70589438  0.23571801  1
  As  As2  1  0.38827735  0.79410562  0.73571801  1
  As  As3  1  0.61172265  0.20589438  0.26428199  1
  As  As4  1  0.53555205  0.79714652  0.66517768  1
  As  As5  1  0.46444795  0.20285348  0.33482232  1
  As  As6  1  0.96444795  0.29714652  0.83482232  1
  As  As7  1  0.03555205  0.70285348  0.16517768  1
  O  O8  1  0.33358644  0.91942486  0.07507850  1
  O  O9  1  0.66641356  0.08057514  0.92492150  1
  O  O10  1  0.16641356  0.41942486  0.42492150  1
  O  O11  1  0.83358644  0.58057514  0.57507850  1
  O  O12  1  0.32391204  0.38730863  0.14208730  1
  O  O13  1  0.67608796  0.61269137  0.85791270  1
  O  O14  1  0.17608796  0.88730863  0.35791270  1
  O  O15  1  0.82391204  0.11269137  0.64208730  1
  O  O16  1  0.40374493  0.07365926  0.66736061  1
  O  O17  1  0.59625507  0.92634074  0.33263939  1
  O  O18  1  0.09625507  0.57365926  0.83263939  1
  O  O19  1  0.90374493  0.42634074  0.16736061  1
