# generated using pymatgen
data_HfO2
_symmetry_space_group_name_H-M   'P 1'
_cell_length_a   3.81787769
_cell_length_b   3.45204818
_cell_length_c   10.53696979
_cell_angle_alpha   90.00000000
_cell_angle_beta   97.17341376
_cell_angle_gamma   90.00000000
_symmetry_Int_Tables_number   1
_chemical_formula_structural   HfO2
_chemical_formula_sum   'Hf4 O8'
_cell_volume   137.78498389
_cell_formula_units_Z   4
loop_
 _symmetry_equiv_pos_site_id
 _symmetry_equiv_pos_as_xyz
  1  'x, y, z'
loop_
 _atom_site_type_symbol
 _atom_site_label
 _atom_site_symmetry_multiplicity
 _atom_site_fract_x
 _atom_site_fract_y
 _atom_site_fract_z
 _atom_site_occupancy
  Hf  Hf0  1  0.28015530  0.00000000  0.44252154  1
  Hf  Hf1  1  0.10751644  0.00000000  0.94817373  1
  Hf  Hf2  1  0.52457216  0.50000000  0.71388075  1
  Hf  Hf3  1  0.69749997  0.50000000  0.20772786  1
  O  O4  1  0.21975215  0.50000000  0.29549398  1
  O  O5  1  0.06374205  0.50000000  0.80053390  1
  O  O6  1  0.56796968  0.00000000  0.86020412  1
  O  O7  1  0.74266559  0.00000000  0.35598357  1
  O  O8  1  0.51477133  0.00000000  0.11310118  1
  O  O9  1  0.62651454  0.00000000  0.61788718  1
  O  O10  1  0.18019047  0.50000000  0.53857355  1
  O  O11  1  0.98925761  0.50000000  0.04258770  1
