data_functionalizedCrystal
_audit_creation_method	'MofGen! by Chris Wilmer'
_symmetry_space_group_name_H-M	'P1'
_symmetry_Int_Tables_number	1
_symmetry_cell_setting	triclinic
loop_
_symmetry_equiv_pos_as_xyz
  x,y,z
_cell_length_a	14.519709
_cell_length_b	14.519709
_cell_length_c	13.596369
_cell_angle_alpha	89.999709
_cell_angle_beta	89.993066
_cell_angle_gamma	96.319855
loop_
_atom_site_label
_atom_site_type_symbol
_atom_site_fract_x
_atom_site_fract_y
_atom_site_fract_z
O1	O	0.120893	-1.223868	-0.081665
O2	O	0.135129	-0.955392	-0.081696
O3	O	-0.006227	-1.096748	-0.081671
O4	O	0.262249	-1.082512	-0.081690
O5	O	-0.006235	-1.096734	0.081912
O6	O	0.135122	-0.955377	0.081887
O7	O	0.120885	-1.223854	0.081917
Zn8	Zn	0.128002	-1.089614	0.107875
Zn9	Zn	0.128012	-1.089632	-0.107653
O10	O	0.262242	-1.082498	0.081893
C11	C	-0.040591	-1.096078	0.000121
C12	C	-0.142972	-1.094090	0.000121
C13	C	0.134462	-0.921025	0.000092
C14	C	0.132474	-0.818643	0.000081
N15	N	0.127995	-1.089608	0.254966
C16	C	-0.517868	-1.086770	0.000095
C17	C	-0.413560	-1.088803	0.000102
C18	C	-0.330423	-1.090430	0.000109
C19	C	-0.226109	-1.092463	0.000114
C20	C	0.296605	-1.083168	0.000099
C21	C	0.398987	-1.085156	0.000092
C22	C	0.121553	-1.258221	0.000128
C23	C	0.123541	-1.360602	0.000132
C24	C	0.125154	-0.443748	0.000126
C25	C	0.127187	-0.548056	0.000113
C26	C	0.128814	-0.631192	0.000102
C27	C	0.130847	-0.735507	0.000091
N28	N	0.128012	-1.089645	-0.254745
C29	C	0.128013	-1.089631	0.656257
C30	C	0.128011	-1.089622	0.544606
C31	C	0.128005	-1.089620	0.455615
C32	C	0.128001	-1.089610	0.343957
