# generated using pymatgen
data_TiO2
_symmetry_space_group_name_H-M   'P 1'
_cell_length_a   6.51145487
_cell_length_b   6.51145487
_cell_length_c   6.51145487
_cell_angle_alpha   94.82679120
_cell_angle_beta   94.82679120
_cell_angle_gamma   146.27504909
_symmetry_Int_Tables_number   1
_chemical_formula_structural   TiO2
_chemical_formula_sum   'Ti4 O8'
_cell_volume   146.69064778
_cell_formula_units_Z   4
loop_
 _symmetry_equiv_pos_site_id
 _symmetry_equiv_pos_as_xyz
  1  'x, y, z'
loop_
 _atom_site_type_symbol
 _atom_site_label
 _atom_site_symmetry_multiplicity
 _atom_site_fract_x
 _atom_site_fract_y
 _atom_site_fract_z
 _atom_site_occupancy
  Ti  Ti0  1  0.01148471  0.29049836  0.30198306  1
  Ti  Ti1  1  0.70950164  0.01148471  0.72098635  1
  Ti  Ti2  1  0.29049836  0.98851529  0.27901365  1
  Ti  Ti3  1  0.98851529  0.70950164  0.69801694  1
  O  O4  1  0.15209721  0.49326340  0.64536061  1
  O  O5  1  0.84379466  0.16199019  0.00578485  1
  O  O6  1  0.50673660  0.15209721  0.65883380  1
  O  O7  1  0.16199019  0.15620534  0.31819553  1
  O  O8  1  0.83800981  0.84379466  0.68180447  1
  O  O9  1  0.49326340  0.84790279  0.34116620  1
  O  O10  1  0.15620534  0.83800981  0.99421515  1
  O  O11  1  0.84790279  0.50673660  0.35463939  1
