# generated using pymatgen
data_TiO2
_symmetry_space_group_name_H-M   'P 1'
_cell_length_a   3.77805568
_cell_length_b   3.77805577
_cell_length_c   5.47571666
_cell_angle_alpha   110.17268579
_cell_angle_beta   110.17268587
_cell_angle_gamma   89.98857806
_symmetry_Int_Tables_number   1
_chemical_formula_structural   TiO2
_chemical_formula_sum   'Ti2 O4'
_cell_volume   68.23592666
_cell_formula_units_Z   2
loop_
 _symmetry_equiv_pos_site_id
 _symmetry_equiv_pos_as_xyz
  1  'x, y, z'
loop_
 _atom_site_type_symbol
 _atom_site_label
 _atom_site_symmetry_multiplicity
 _atom_site_fract_x
 _atom_site_fract_y
 _atom_site_fract_z
 _atom_site_occupancy
  O  O0  1  0.33264072  0.08316704  0.66541770  1
  O  O1  1  0.66741414  0.91686348  0.33458450  1
  O  O2  1  0.91686348  0.66741414  0.83458450  1
  O  O3  1  0.08316704  0.33264072  0.16541770  1
  Ti  Ti4  1  0.12517344  0.87487658  0.24999779  1
  Ti  Ti5  1  0.87487658  0.12517344  0.74999779  1
