# generated using pymatgen
data_TiO2
_symmetry_space_group_name_H-M   'P 1'
_cell_length_a   2.98183885
_cell_length_b   4.97228754
_cell_length_c   9.53184136
_cell_angle_alpha   90.00000000
_cell_angle_beta   90.00000000
_cell_angle_gamma   90.00000000
_symmetry_Int_Tables_number   1
_chemical_formula_structural   TiO2
_chemical_formula_sum   'Ti4 O8'
_cell_volume   141.32441936
_cell_formula_units_Z   4
loop_
 _symmetry_equiv_pos_site_id
 _symmetry_equiv_pos_as_xyz
  1  'x, y, z'
loop_
 _atom_site_type_symbol
 _atom_site_label
 _atom_site_symmetry_multiplicity
 _atom_site_fract_x
 _atom_site_fract_y
 _atom_site_fract_z
 _atom_site_occupancy
  Ti  Ti0  1  0.25000000  0.58017796  0.63766632  1
  Ti  Ti1  1  0.75000000  0.41982204  0.36233368  1
  Ti  Ti2  1  0.75000000  0.08017796  0.86233368  1
  Ti  Ti3  1  0.25000000  0.91982204  0.13766632  1
  O  O4  1  0.25000000  0.29622270  0.47016264  1
  O  O5  1  0.75000000  0.70377730  0.52983736  1
  O  O6  1  0.75000000  0.79622270  0.02983736  1
  O  O7  1  0.25000000  0.20377730  0.97016264  1
  O  O8  1  0.25000000  0.63323043  0.26655515  1
  O  O9  1  0.75000000  0.36676957  0.73344485  1
  O  O10  1  0.75000000  0.13323043  0.23344485  1
  O  O11  1  0.25000000  0.86676957  0.76655515  1
